# generated using pymatgen
data_AgSbS2
_symmetry_space_group_name_H-M   C2/c
_cell_length_a   12.79472425
_cell_length_b   4.62089793
_cell_length_c   13.24677991
_cell_angle_alpha   90.00000000
_cell_angle_beta   98.45488115
_cell_angle_gamma   90.00000000
_symmetry_Int_Tables_number   15
_chemical_formula_structural   AgSbS2
_chemical_formula_sum   'Ag8 Sb8 S16'
_cell_volume   774.67913350
_cell_formula_units_Z   8
loop_
 _symmetry_equiv_pos_site_id
 _symmetry_equiv_pos_as_xyz
  1  'x, y, z'
  2  '-x, -y, -z'
  3  '-x, y, -z+1/2'
  4  'x, -y, z+1/2'
  5  'x+1/2, y+1/2, z'
  6  '-x+1/2, -y+1/2, -z'
  7  '-x+1/2, y+1/2, -z+1/2'
  8  'x+1/2, -y+1/2, z+1/2'
loop_
 _atom_type_symbol
 _atom_type_oxidation_number
  Ag+  1.0
  Sb3+  3.0
  S2-  -2.0
loop_
 _atom_site_type_symbol
 _atom_site_label
 _atom_site_symmetry_multiplicity
 _atom_site_fract_x
 _atom_site_fract_y
 _atom_site_fract_z
 _atom_site_occupancy
  Ag+  Ag0  4  0.00000000  0.00590752  0.25000000  1
  Ag+  Ag1  4  0.00000000  0.50000000  0.00000000  1
  Sb3+  Sb2  8  0.24547506  0.47424374  0.87282556  1
  S2-  S3  8  0.10861396  0.19200761  0.41423609  1
  S2-  S4  8  0.14420603  0.34802678  0.69935602  1
