# generated using pymatgen
data_Ba2Cu(PO3)6
_symmetry_space_group_name_H-M   P2_1/c
_cell_length_a   9.68960600
_cell_length_b   7.44073300
_cell_length_c   21.70218261
_cell_angle_alpha   90.00000000
_cell_angle_beta   98.03310008
_cell_angle_gamma   90.00000000
_symmetry_Int_Tables_number   14
_chemical_formula_structural   Ba2Cu(PO3)6
_chemical_formula_sum   'Ba8 Cu4 P24 O72'
_cell_volume   1549.32558611
_cell_formula_units_Z   4
loop_
 _symmetry_equiv_pos_site_id
 _symmetry_equiv_pos_as_xyz
  1  'x, y, z'
  2  '-x, -y, -z'
  3  '-x, y+1/2, -z+1/2'
  4  'x, -y+1/2, z+1/2'
loop_
 _atom_type_symbol
 _atom_type_oxidation_number
  Ba2+  2.0
  Cu2+  2.0
  P5+  5.0
  O2-  -2.0
loop_
 _atom_site_type_symbol
 _atom_site_label
 _atom_site_symmetry_multiplicity
 _atom_site_fract_x
 _atom_site_fract_y
 _atom_site_fract_z
 _atom_site_occupancy
  Ba2+  Ba0  4  0.12459300  0.11314600  0.61565500  1
  Ba2+  Ba1  4  0.27811200  0.64827900  0.51112000  1
  Cu2+  Cu2  4  0.37773200  0.16953500  0.24618000  1
  P5+  P3  4  0.02607000  0.11025400  0.88696400  1
  P5+  P4  4  0.10070700  0.55698900  0.74264200  1
  P5+  P5  4  0.22626300  0.15897000  0.46062500  1
  P5+  P6  4  0.31950000  0.64264200  0.25304200  1
  P5+  P7  4  0.46090400  0.04146700  0.39405800  1
  P5+  P8  4  0.47722500  0.64572400  0.37865400  1
  O2-  O9  4  0.02564800  0.08972400  0.81280800  1
  O2-  O10  4  0.04476000  0.53869000  0.80236500  1
  O2-  O11  4  0.04946500  0.57170600  0.41736600  1
  O2-  O12  4  0.09462300  0.72148000  0.59722300  1
  O2-  O13  4  0.15294500  0.51907000  0.96303300  1
  O2-  O14  4  0.16780800  0.22796000  0.89916000  1
  O2-  O15  4  0.17805200  0.74894500  0.74162500  1
  O2-  O16  4  0.18800500  0.09101300  0.21902000  1
  O2-  O17  4  0.22991300  0.21913100  0.01636600  1
  O2-  O18  4  0.29468900  0.03668900  0.72273600  1
  O2-  O19  4  0.34245400  0.61096200  0.32775000  1
  O2-  O20  4  0.37824300  0.07978300  0.33172000  1
  O2-  O21  4  0.38588900  0.13006200  0.44886200  1
  O2-  O22  4  0.38709500  0.58452100  0.09075600  1
  O2-  O23  4  0.39338300  0.17026800  0.15216700  1
  O2-  O24  4  0.43505200  0.66893100  0.91087800  1
  O2-  O25  4  0.43512500  0.73669700  0.73601000  1
  O2-  O26  4  0.47676400  0.50854700  0.42901700  1
