# generated using pymatgen
data_Ba2Ho(CuO2)4
_symmetry_space_group_name_H-M   Cmmm
_cell_length_a   3.89434800
_cell_length_b   27.47332400
_cell_length_c   3.87946000
_cell_angle_alpha   90.00000000
_cell_angle_beta   90.00000000
_cell_angle_gamma   90.00000000
_symmetry_Int_Tables_number   65
_chemical_formula_structural   Ba2Ho(CuO2)4
_chemical_formula_sum   'Ba4 Ho2 Cu8 O16'
_cell_volume   415.06608040
_cell_formula_units_Z   2
loop_
 _symmetry_equiv_pos_site_id
 _symmetry_equiv_pos_as_xyz
  1  'x, y, z'
  2  '-x, -y, -z'
  3  '-x, -y, z'
  4  'x, y, -z'
  5  'x, -y, -z'
  6  '-x, y, z'
  7  '-x, y, -z'
  8  'x, -y, z'
  9  'x+1/2, y+1/2, z'
  10  '-x+1/2, -y+1/2, -z'
  11  '-x+1/2, -y+1/2, z'
  12  'x+1/2, y+1/2, -z'
  13  'x+1/2, -y+1/2, -z'
  14  '-x+1/2, y+1/2, z'
  15  '-x+1/2, y+1/2, -z'
  16  'x+1/2, -y+1/2, z'
loop_
 _atom_type_symbol
 _atom_type_oxidation_number
  Ba2+  2.0
  Ho2+  2.0
  Cu2+  2.0
  O2-  -2.0
  O-  -1.0
loop_
 _atom_site_type_symbol
 _atom_site_label
 _atom_site_symmetry_multiplicity
 _atom_site_fract_x
 _atom_site_fract_y
 _atom_site_fract_z
 _atom_site_occupancy
  Ba2+  Ba0  4  0.00000000  0.36445300  0.50000000  1
  Ho2+  Ho1  2  0.00000000  0.50000000  0.50000000  1
  Cu2+  Cu2  4  0.00000000  0.06091700  0.00000000  1
  Cu2+  Cu3  4  0.00000000  0.21260300  0.00000000  1
  O2-  O4  4  0.00000000  0.05161000  0.50000000  1
  O2-  O5  4  0.00000000  0.14524900  0.00000000  1
  O-  O6  4  0.00000000  0.28154500  0.00000000  1
  O2-  O7  4  0.00000000  0.44850800  0.00000000  1
