# generated using pymatgen
data_Ba2Ti(SiO4)2
_symmetry_space_group_name_H-M   P4bm
_cell_length_a   8.56085271
_cell_length_b   8.56085271
_cell_length_c   5.23975282
_cell_angle_alpha   90.00000000
_cell_angle_beta   90.00000000
_cell_angle_gamma   90.00000000
_symmetry_Int_Tables_number   100
_chemical_formula_structural   Ba2Ti(SiO4)2
_chemical_formula_sum   'Ba4 Ti2 Si4 O16'
_cell_volume   384.01204802
_cell_formula_units_Z   2
loop_
 _symmetry_equiv_pos_site_id
 _symmetry_equiv_pos_as_xyz
  1  'x, y, z'
  2  '-y, x, z'
  3  '-x, -y, z'
  4  'y, -x, z'
  5  '-x+1/2, y+1/2, z'
  6  'y+1/2, x+1/2, z'
  7  'x+1/2, -y+1/2, z'
  8  '-y+1/2, -x+1/2, z'
loop_
 _atom_type_symbol
 _atom_type_oxidation_number
  Ba2+  2.0
  Ti4+  4.0
  Si4+  4.0
  O2-  -2.0
loop_
 _atom_site_type_symbol
 _atom_site_label
 _atom_site_symmetry_multiplicity
 _atom_site_fract_x
 _atom_site_fract_y
 _atom_site_fract_z
 _atom_site_occupancy
  Ba2+  Ba0  4  0.17301428  0.32698572  0.99494196  1
  Ti4+  Ti1  2  0.00000000  0.00000000  0.53412278  1
  Si4+  Si2  4  0.12799199  0.62799199  0.51053714  1
  O2-  O3  8  0.07693521  0.79265418  0.64084162  1
  O2-  O4  4  0.12611148  0.62611148  0.20654527  1
  O2-  O5  2  0.00000000  0.00000000  0.20886314  1
  O2-  O6  2  0.00000000  0.50000000  0.62559986  1
