# generated using pymatgen
data_In2Ge2O7
_symmetry_space_group_name_H-M   C2/m
_cell_length_a   6.70162908
_cell_length_b   8.83646176
_cell_length_c   4.95382364
_cell_angle_alpha   90.00000000
_cell_angle_beta   102.41072410
_cell_angle_gamma   90.00000000
_symmetry_Int_Tables_number   12
_chemical_formula_structural   In2Ge2O7
_chemical_formula_sum   'In4 Ge4 O14'
_cell_volume   286.50375053
_cell_formula_units_Z   2
loop_
 _symmetry_equiv_pos_site_id
 _symmetry_equiv_pos_as_xyz
  1  'x, y, z'
  2  '-x, -y, -z'
  3  '-x, y, -z'
  4  'x, -y, z'
  5  'x+1/2, y+1/2, z'
  6  '-x+1/2, -y+1/2, -z'
  7  '-x+1/2, y+1/2, -z'
  8  'x+1/2, -y+1/2, z'
loop_
 _atom_type_symbol
 _atom_type_oxidation_number
  In3+  3.0
  Ge4+  4.0
  O2-  -2.0
loop_
 _atom_site_type_symbol
 _atom_site_label
 _atom_site_symmetry_multiplicity
 _atom_site_fract_x
 _atom_site_fract_y
 _atom_site_fract_z
 _atom_site_occupancy
  In3+  In0  4  0.00000000  0.30701739  0.00000000  1
  Ge4+  Ge1  4  0.23409720  0.00000000  0.40715708  1
  O2-  O2  8  0.23979727  0.16556062  0.21167012  1
  O2-  O3  4  0.09026681  0.50000000  0.27347076  1
  O2-  O4  2  0.00000000  0.00000000  0.50000000  1
