# generated using pymatgen
data_Al(SeCl2)2
_symmetry_space_group_name_H-M   Pbam
_cell_length_a   13.41191934
_cell_length_b   13.43200475
_cell_length_c   9.34184097
_cell_angle_alpha   90.00000000
_cell_angle_beta   90.00000000
_cell_angle_gamma   90.00000000
_symmetry_Int_Tables_number   55
_chemical_formula_structural   Al(SeCl2)2
_chemical_formula_sum   'Al8 Se16 Cl32'
_cell_volume   1682.92297523
_cell_formula_units_Z   8
loop_
 _symmetry_equiv_pos_site_id
 _symmetry_equiv_pos_as_xyz
  1  'x, y, z'
  2  '-x, -y, -z'
  3  '-x, -y, z'
  4  'x, y, -z'
  5  'x+1/2, -y+1/2, -z'
  6  '-x+1/2, y+1/2, z'
  7  '-x+1/2, y+1/2, -z'
  8  'x+1/2, -y+1/2, z'
loop_
 _atom_site_type_symbol
 _atom_site_label
 _atom_site_symmetry_multiplicity
 _atom_site_fract_x
 _atom_site_fract_y
 _atom_site_fract_z
 _atom_site_occupancy
  Al  Al0  4  0.10358227  0.16879339  0.50000000  1
  Al  Al1  4  0.16272643  0.61511649  0.00000000  1
  Se  Se2  4  0.00000000  0.00000000  0.17489491  1
  Se  Se3  4  0.00000000  0.50000000  0.32493363  1
  Se  Se4  4  0.01635613  0.12077031  0.00000000  1
  Se  Se5  4  0.11921739  0.52509317  0.50000000  1
  Cl  Cl6  8  0.01290616  0.20672492  0.31556325  1
  Cl  Cl7  8  0.20674774  0.52799336  0.18502947  1
  Cl  Cl8  4  0.00439621  0.63221891  0.00000000  1
  Cl  Cl9  4  0.13201447  0.01216598  0.50000000  1
  Cl  Cl10  4  0.23680620  0.25332847  0.50000000  1
  Cl  Cl11  4  0.23812157  0.75355505  0.00000000  1
