# generated using pymatgen
data_AlInI4
_symmetry_space_group_name_H-M   P2_1/m
_cell_length_a   7.26227272
_cell_length_b   11.82863263
_cell_length_c   12.31508262
_cell_angle_alpha   90.00000000
_cell_angle_beta   95.95580283
_cell_angle_gamma   90.00000000
_symmetry_Int_Tables_number   11
_chemical_formula_structural   AlInI4
_chemical_formula_sum   'Al4 In4 I16'
_cell_volume   1052.18924099
_cell_formula_units_Z   4
loop_
 _symmetry_equiv_pos_site_id
 _symmetry_equiv_pos_as_xyz
  1  'x, y, z'
  2  '-x, -y, -z'
  3  '-x, y+1/2, -z'
  4  'x, -y+1/2, z'
loop_
 _atom_type_symbol
 _atom_type_oxidation_number
  Al3+  3.0
  In+  1.0
  I-  -1.0
loop_
 _atom_site_type_symbol
 _atom_site_label
 _atom_site_symmetry_multiplicity
 _atom_site_fract_x
 _atom_site_fract_y
 _atom_site_fract_z
 _atom_site_occupancy
  Al3+  Al0  2  0.22724307  0.25000000  0.44511853  1
  Al3+  Al1  2  0.43099223  0.25000000  0.97189849  1
  In+  In2  4  0.40570607  0.01933286  0.70561523  1
  I-  I3  4  0.12011560  0.07166546  0.34220318  1
  I-  I4  4  0.23014907  0.07369736  0.94624592  1
  I-  I5  2  0.10447698  0.25000000  0.63377836  1
  I-  I6  2  0.33770532  0.75000000  0.17237777  1
  I-  I7  2  0.38822024  0.75000000  0.83902029  1
  I-  I8  2  0.42065495  0.75000000  0.51347197  1
