# generated using pymatgen
data_Ce3Si2
_symmetry_space_group_name_H-M   P4/mbm
_cell_length_a   7.80177085
_cell_length_b   7.80177085
_cell_length_c   4.25348797
_cell_angle_alpha   90.00000000
_cell_angle_beta   90.00000000
_cell_angle_gamma   90.00000000
_symmetry_Int_Tables_number   127
_chemical_formula_structural   Ce3Si2
_chemical_formula_sum   'Ce6 Si4'
_cell_volume   258.89972528
_cell_formula_units_Z   2
loop_
 _symmetry_equiv_pos_site_id
 _symmetry_equiv_pos_as_xyz
  1  'x, y, z'
  2  '-x, -y, -z'
  3  '-y, x, z'
  4  'y, -x, -z'
  5  '-x, -y, z'
  6  'x, y, -z'
  7  'y, -x, z'
  8  '-y, x, -z'
  9  'x+1/2, -y+1/2, -z'
  10  '-x+1/2, y+1/2, z'
  11  '-y+1/2, -x+1/2, -z'
  12  'y+1/2, x+1/2, z'
  13  '-x+1/2, y+1/2, -z'
  14  'x+1/2, -y+1/2, z'
  15  'y+1/2, x+1/2, -z'
  16  '-y+1/2, -x+1/2, z'
loop_
 _atom_type_symbol
 _atom_type_oxidation_number
  Ce2+  2.0
  Ce3+  3.0
  Si4-  -4.0
loop_
 _atom_site_type_symbol
 _atom_site_label
 _atom_site_symmetry_multiplicity
 _atom_site_fract_x
 _atom_site_fract_y
 _atom_site_fract_z
 _atom_site_occupancy
  Ce3+  Ce0  4  0.17877219  0.67877219  0.50000000  1
  Ce2+  Ce1  2  0.00000000  0.00000000  0.00000000  1
  Si4-  Si2  4  0.10955096  0.39044904  0.00000000  1
