# generated using pymatgen
data_CrF2
_symmetry_space_group_name_H-M   P2_1/c
_cell_length_a   3.55643820
_cell_length_b   4.66410698
_cell_length_c   5.54018545
_cell_angle_alpha   90.00000000
_cell_angle_beta   122.06698544
_cell_angle_gamma   90.00000000
_symmetry_Int_Tables_number   14
_chemical_formula_structural   CrF2
_chemical_formula_sum   'Cr2 F4'
_cell_volume   77.87729720
_cell_formula_units_Z   2
loop_
 _symmetry_equiv_pos_site_id
 _symmetry_equiv_pos_as_xyz
  1  'x, y, z'
  2  '-x, -y, -z'
  3  '-x, y+1/2, -z+1/2'
  4  'x, -y+1/2, z+1/2'
loop_
 _atom_type_symbol
 _atom_type_oxidation_number
  Cr2+  2.0
  F-  -1.0
loop_
 _atom_site_type_symbol
 _atom_site_label
 _atom_site_symmetry_multiplicity
 _atom_site_fract_x
 _atom_site_fract_y
 _atom_site_fract_z
 _atom_site_occupancy
  Cr2+  Cr0  2  0.00000000  0.00000000  0.00000000  1
  F-  F1  4  0.25011108  0.19940890  0.79741362  1
