# generated using pymatgen
data_Dy3Co
_symmetry_space_group_name_H-M   Pnma
_cell_length_a   6.85723736
_cell_length_b   9.44313551
_cell_length_c   6.21691021
_cell_angle_alpha   90.00000000
_cell_angle_beta   90.00000000
_cell_angle_gamma   90.00000000
_symmetry_Int_Tables_number   62
_chemical_formula_structural   Dy3Co
_chemical_formula_sum   'Dy12 Co4'
_cell_volume   402.56869473
_cell_formula_units_Z   4
loop_
 _symmetry_equiv_pos_site_id
 _symmetry_equiv_pos_as_xyz
  1  'x, y, z'
  2  '-x, -y, -z'
  3  '-x+1/2, -y, z+1/2'
  4  'x+1/2, y, -z+1/2'
  5  'x+1/2, -y+1/2, -z+1/2'
  6  '-x+1/2, y+1/2, z+1/2'
  7  '-x, y+1/2, -z'
  8  'x, -y+1/2, z'
loop_
 _atom_site_type_symbol
 _atom_site_label
 _atom_site_symmetry_multiplicity
 _atom_site_fract_x
 _atom_site_fract_y
 _atom_site_fract_z
 _atom_site_occupancy
  Dy  Dy0  8  0.17205329  0.06905532  0.17957059  1
  Dy  Dy1  4  0.04635273  0.25000000  0.64154852  1
  Co  Co2  4  0.11101262  0.75000000  0.95854032  1
