# generated using pymatgen
data_Er3Ru
_symmetry_space_group_name_H-M   Pnma
_cell_length_a   7.27244400
_cell_length_b   9.10111700
_cell_length_c   6.23665500
_cell_angle_alpha   90.00000000
_cell_angle_beta   90.00000000
_cell_angle_gamma   90.00000000
_symmetry_Int_Tables_number   62
_chemical_formula_structural   Er3Ru
_chemical_formula_sum   'Er12 Ru4'
_cell_volume   412.78775288
_cell_formula_units_Z   4
loop_
 _symmetry_equiv_pos_site_id
 _symmetry_equiv_pos_as_xyz
  1  'x, y, z'
  2  '-x, -y, -z'
  3  '-x+1/2, -y, z+1/2'
  4  'x+1/2, y, -z+1/2'
  5  'x+1/2, -y+1/2, -z+1/2'
  6  '-x+1/2, y+1/2, z+1/2'
  7  '-x, y+1/2, -z'
  8  'x, -y+1/2, z'
loop_
 _atom_site_type_symbol
 _atom_site_label
 _atom_site_symmetry_multiplicity
 _atom_site_fract_x
 _atom_site_fract_y
 _atom_site_fract_z
 _atom_site_occupancy
  Er  Er0  8  0.17705600  0.06400500  0.16872800  1
  Er  Er1  4  0.03825300  0.25000000  0.63357000  1
  Ru  Ru2  4  0.11614400  0.75000000  0.95785700  1
